<?xml version="1.0" ?>
<!DOCTYPE network SYSTEM "http://www.matsim.org/files/dtd/network_v1.dtd">
<network>
    <nodes>
        <node id="1" x="1728.38907333" y="2491.01065221"/>
        <node id="2" x="1629.80941619" y="2568.73430719"/>
        <node id="3" x="1953.40307166" y="2851.81122537"/>
        <node id="4" x="1827.26402586" y="2894.74196725"/>
        <node id="5" x="2078.83655813" y="3706.06913881"/>
        <node id="6" x="2292.4441148" y="3643.1745539"/>
        <node id="7" x="1406.66676463" y="2722.31597644"/>
        <node id="8" x="1199.76316285" y="2639.49008575"/>
        <node id="9" x="1147.5283041" y="2971.55311768"/>
        <node id="10" x="1317.66335849" y="2707.34761043"/>
        <node id="11" x="1334.92603005" y="2982.82868972"/>
        <node id="12" x="1428.02386574" y="3089.13401136"/>
        <node id="13" x="1314.80552441" y="3617.92614761"/>
        <node id="14" x="1463.68917677" y="3611.70338541"/>
        <node id="15" x="1312.78479591" y="3698.80479818"/>
        <node id="16" x="1470.0181791" y="3692.48360124"/>
        <node id="17" x="946.561219423" y="3712.77346799"/>
        <node id="18" x="1690.93378697" y="3887.55884487"/>
        <node id="19" x="1705.05285952" y="3965.39849691"/>
        <node id="20" x="1485.6182896" y="3978.70916377"/>
        <node id="21" x="1314.80477213" y="3980.60596234"/>
        <node id="22" x="1200.31179792" y="3989.89482843"/>
        <node id="23" x="847.516110758" y="3999.96722689"/>
        <node id="24" x="2801.87131333" y="4134.60790877"/>
        <node id="25" x="2515.68754882" y="4500.76832577"/>
        <node id="26" x="2405.08772863" y="4423.49161541"/>
        <node id="27" x="2100.57604627" y="4230.10675785"/>
        <node id="28" x="1739.38947217" y="4242.28252771"/>
        <node id="29" x="1654.39011491" y="4244.59540171"/>
        <node id="30" x="1502.73281903" y="4251.82779351"/>
        <node id="31" x="1329.93988531" y="4257.32513689"/>
        <node id="32" x="1205.27811055" y="4340.73220529"/>
        <node id="33" x="1338.86950233" y="4429.00124463"/>
        <node id="34" x="1345.04610831" y="4574.45295472"/>
        <node id="35" x="1264.05907183" y="4574.02943733"/>
        <node id="36" x="1118.39351301" y="4574.92489295"/>
        <node id="37" x="979.036683632" y="4510.47820222"/>
        <node id="38" x="649.60289734" y="4549.9945817"/>
        <node id="39" x="922.386602886" y="4658.26694056"/>
        <node id="40" x="516.500277707" y="4913.00016345"/>
        <node id="41" x="852.983466195" y="4838.20192634"/>
        <node id="42" x="1033.99040597" y="4795.65524134"/>
        <node id="43" x="1068.85862178" y="4714.33314264"/>
        <node id="44" x="1157.83316139" y="4758.30512631"/>
        <node id="45" x="1360.31732005" y="4707.92363135"/>
        <node id="46" x="1521.87193851" y="4566.35725419"/>
        <node id="47" x="1532.91281612" y="4658.21826301"/>
        <node id="48" x="1678.37693381" y="4559.25545467"/>
        <node id="49" x="1682.36440574" y="4632.53899335"/>
        <node id="50" x="1750.7920239" y="4557.37423502"/>
        <node id="51" x="1746.94420926" y="4609.11600787"/>
        <node id="52" x="1876.4371207" y="4574.99881505"/>
        <node id="53" x="2127.52159053" y="4592.9005969"/>
        <node id="54" x="2240.89106968" y="4606.18432939"/>
        <node id="55" x="2194.35590378" y="4866.99459761"/>
        <node id="56" x="2427.50632331" y="4899.62124625"/>
        <node id="57" x="2618.95337127" y="4925.28832644"/>
        <node id="58" x="2683.0275986" y="4616.0812645"/>
        <node id="59" x="3269.14678616" y="4521.6389368"/>
        <node id="60" x="3064.9539795" y="4977.98752822"/>
        <node id="61" x="3068.04880342" y="4882.8728164"/>
        <node id="62" x="3662.28259215" y="5060.02287759"/>
        <node id="63" x="2182.19938194" y="4980.698012"/>
        <node id="64" x="2082.89562426" y="4974.64008472"/>
        <node id="65" x="2059.49638624" y="5090.01956798"/>
        <node id="66" x="2170.03875726" y="5088.44320622"/>
        <node id="67" x="2397.37852757" y="5118.12886873"/>
        <node id="68" x="2593.08482824" y="5131.31094269"/>
        <node id="69" x="3644.98189266" y="5262.3920107"/>
        <node id="70" x="3542.87475437" y="5706.05227352"/>
        <node id="71" x="2987.58695364" y="5633.69645503"/>
        <node id="72" x="2538.2530602" y="5570.0407333"/>
        <node id="73" x="2327.95428528" y="5553.39839418"/>
        <node id="74" x="2105.33464796" y="5521.61890864"/>
        <node id="75" x="1967.96946765" y="5507.9424156"/>
        <node id="76" x="1771.65107791" y="4976.50836655"/>
        <node id="77" x="1758.73332656" y="5050.8894375"/>
        <node id="78" x="1738.01313025" y="5142.27048347"/>
        <node id="79" x="1719.14927458" y="5046.74236932"/>
        <node id="80" x="1715.26878865" y="4977.82621684"/>
        <node id="81" x="1555.75148037" y="4980.23063965"/>
        <node id="82" x="1242.22294741" y="5007.83521397"/>
        <node id="83" x="1092.18715585" y="4958.42695158"/>
        <node id="84" x="1077.33940207" y="5021.22901464"/>
        <node id="85" x="986.081046184" y="4920.87713899"/>
        <node id="86" x="785.583591568" y="5422.08952356"/>
        <node id="87" x="644.996304787" y="5364.44301958"/>
        <node id="88" x="980.972890373" y="5498.83881793"/>
        <node id="89" x="1588.15765057" y="5457.6691391"/>
        <node id="90" x="1716.49817204" y="5488.81419326"/>
        <node id="91" x="364.75586181" y="5258.1539719"/>
        <node id="92" x="3359.0841675" y="6604.47409493"/>
        <node id="93" x="2991.96349477" y="6610.59966813"/>
        <node id="94" x="2324.95211384" y="6611.2760248"/>
        <node id="95" x="2097.78511686" y="6612.85911748"/>
        <node id="96" x="1877.46991882" y="6614.78750692"/>
        <node id="97" x="1874.84160625" y="5989.48696702"/>
        <node id="98" x="1878.6313803" y="6144.01776257"/>
        <node id="99" x="1767.72689041" y="6136.77790749"/>
        <node id="100" x="1635.41102572" y="6136.90216988"/>
        <node id="101" x="1251.31929035" y="6142.31496272"/>
        <node id="102" x="1620.81755316" y="6614.7339859"/>
        <node id="103" x="1529.98696625" y="6616.24884466"/>
        <node id="104" x="1256.35531334" y="6612.69012345"/>
        <node id="105" x="945.148775988" y="6145.83221339"/>
        <node id="106" x="941.555233105" y="6617.16574944"/>
        <node id="107" x="671.113374958" y="6363.56272442"/>
        <node id="108" x="675.330927452" y="6615.39824413"/>
        <node id="109" x="325.713019893" y="6216.12936057"/>
        <node id="110" x="395.740558898" y="6570.04000525"/>
        <node id="111" x="401.295961706" y="6623.27628374"/>
        <node id="112" x="120.532679542" y="6617.95120125"/>
        <node id="113" x="-4.04545348983" y="6056.38595647"/>
        <node id="114" x="-197.691236913" y="6619.53077614"/>
        <node id="115" x="2978.58843133" y="6938.30135508"/>
        <node id="116" x="2852.54383593" y="7077.21306862"/>
        <node id="117" x="2327.08281932" y="7076.75918477"/>
        <node id="118" x="2662.77935222" y="7316.94115942"/>
        <node id="119" x="2331.28394154" y="7313.8858443"/>
        <node id="120" x="2098.29393479" y="7319.7443467"/>
        <node id="121" x="1876.00755929" y="7321.22268541"/>
        <node id="122" x="1726.94697399" y="7317.59053375"/>
        <node id="123" x="1561.23217177" y="7324.95155043"/>
        <node id="124" x="1411.71891186" y="7322.84465591"/>
        <node id="125" x="1260.42377744" y="7318.36421843"/>
        <node id="126" x="948.257418472" y="7324.54119024"/>
        <node id="127" x="672.732759622" y="7328.81236581"/>
        <node id="128" x="404.096962445" y="7320.90367106"/>
        <node id="129" x="120.374836643" y="7324.46993058"/>
        <node id="130" x="-146.845350318" y="7324.68938791"/>
        <node id="131" x="-429.727758081" y="7223.03059507"/>
        <node id="132" x="-429.962703225" y="7405.76221885"/>
        <node id="133" x="-595.290655999" y="7402.9446504"/>
        <node id="134" x="-694.908840932" y="8203.17681877"/>
        <node id="135" x="-421.536437911" y="8203.17150455"/>
        <node id="136" x="-145.246356818" y="8200.84179524"/>
        <node id="137" x="128.907936566" y="8199.23876646"/>
        <node id="138" x="399.588998827" y="8200.79521878"/>
        <node id="139" x="676.093070865" y="8198.07626137"/>
        <node id="140" x="954.938682762" y="8198.29197087"/>
        <node id="141" x="1263.08449162" y="8194.33997573"/>
        <node id="142" x="1420.68822774" y="8195.06540521"/>
        <node id="143" x="1573.13973667" y="8197.26694398"/>
        <node id="144" x="1735.03151633" y="8192.99983157"/>
        <node id="145" x="1887.10442881" y="8194.48634457"/>
        <node id="146" x="2102.92583589" y="8191.60814447"/>
        <node id="147" x="2330.71422056" y="8193.28128354"/>
        <node id="148" x="2462.9313191" y="8193.86305992"/>
        <node id="149" x="2499.02849721" y="8826.53839368"/>
        <node id="150" x="2334.02150247" y="8836.82298384"/>
        <node id="151" x="2104.60350244" y="8834.25395614"/>
        <node id="152" x="1887.65453532" y="8835.49849366"/>
        <node id="153" x="1729.01787881" y="8837.88016827"/>
        <node id="154" x="1570.96558984" y="8835.5141956"/>
        <node id="155" x="1418.09432361" y="8836.88357285"/>
        <node id="156" x="1263.92677007" y="8838.68081398"/>
        <node id="157" x="952.501159546" y="8838.42199252"/>
        <node id="158" x="680.466195209" y="8838.27551131"/>
        <node id="159" x="403.941552215" y="8838.57542936"/>
        <node id="160" x="129.421008734" y="8839.09005188"/>
        <node id="161" x="128.783299594" y="8768.66184209"/>
        <node id="162" x="5.71429036897" y="8762.84473561"/>
        <node id="163" x="9.1091749016" y="8835.80249661"/>
        <node id="164" x="-143.054099334" y="8751.1362475"/>
        <node id="165" x="-144.910250714" y="8846.80520266"/>
        <node id="166" x="-423.430759161" y="8845.12082583"/>
        <node id="167" x="-687.362900927" y="8843.21949911"/>
        <node id="168" x="-684.912746719" y="10049.4454523"/>
        <node id="169" x="-410.00948502" y="10046.4800552"/>
        <node id="170" x="-139.052690551" y="10041.2183467"/>
        <node id="171" x="134.056326624" y="10047.6578128"/>
        <node id="172" x="408.37523498" y="10042.5970476"/>
        <node id="173" x="686.418376096" y="10046.5534426"/>
        <node id="174" x="955.128265624" y="10045.3788391"/>
        <node id="175" x="1272.85012203" y="10046.8180433"/>
        <node id="176" x="1422.43335726" y="10040.7264347"/>
        <node id="177" x="1579.74079022" y="10045.8509856"/>
        <node id="178" x="1736.73960204" y="10042.0620076"/>
        <node id="179" x="1888.91540716" y="10037.3956764"/>
        <node id="180" x="2111.22235362" y="10038.3363771"/>
        <node id="181" x="2336.89141397" y="10039.478021"/>
        <node id="182" x="2333.84684133" y="9715.67527316"/>
        <node id="183" x="2331.79419856" y="9310.93517855"/>
        <node id="184" x="2529.05192413" y="9325.85721413"/>
        <node id="185" x="2576.73796596" y="9729.70633864"/>
        <node id="186" x="2629.02866523" y="10252.038121"/>
        <node id="187" x="2339.65636922" y="10259.2144737"/>
        <node id="188" x="2211.09350446" y="10287.2533861"/>
        <node id="189" x="2109.87634495" y="10202.2091267"/>
        <node id="190" x="2112.18890946" y="10286.6105291"/>
        <node id="191" x="1890.19899799" y="10206.1355722"/>
        <node id="192" x="1894.00949913" y="10287.812238"/>
        <node id="193" x="1732.03147948" y="10205.733814"/>
        <node id="194" x="1743.78841282" y="10291.9057905"/>
        <node id="195" x="1581.97500814" y="10206.3696301"/>
        <node id="196" x="1582.36989766" y="10287.9426646"/>
        <node id="197" x="1425.25192853" y="10203.3404473"/>
        <node id="198" x="1426.23117139" y="10287.0088499"/>
        <node id="199" x="1274.33537164" y="10208.6990561"/>
        <node id="200" x="1272.06361785" y="10288.806091"/>
        <node id="201" x="959.16904131" y="10212.0862758"/>
        <node id="202" x="684.339853037" y="10215.0923951"/>
        <node id="203" x="437.596806195" y="10249.1258874"/>
        <node id="204" x="134.264875762" y="10686.8347947"/>
        <node id="205" x="-131.461505796" y="10692.057326"/>
        <node id="206" x="-411.541668474" y="10688.1215728"/>
        <node id="207" x="-139.017160775" y="10767.7388399"/>
        <node id="208" x="72.4503539485" y="10772.6048793"/>
        <node id="209" x="140.408701628" y="10764.0916973"/>
        <node id="210" x="412.954106748" y="10688.7386502"/>
        <node id="211" x="404.2214921" y="10771.1230388"/>
        <node id="212" x="1273.03398791" y="10682.1797758"/>
        <node id="213" x="1273.74162979" y="10764.9385287"/>
        <node id="214" x="1431.26735051" y="10682.1108416"/>
        <node id="215" x="1426.3989098" y="10761.6773944"/>
        <node id="216" x="1586.6118448" y="10682.7347462"/>
        <node id="217" x="1581.76397978" y="10762.4393333"/>
        <node id="218" x="1743.04686951" y="10681.5504446"/>
        <node id="219" x="1740.88621875" y="10765.1400706"/>
        <node id="220" x="1896.30495206" y="10685.9695181"/>
        <node id="221" x="1891.61758971" y="10760.8201589"/>
        <node id="222" x="2106.43800014" y="11242.1057978"/>
        <node id="223" x="2339.96297006" y="11242.1171905"/>
        <node id="224" x="2788.60546265" y="11328.9632246"/>
        <node id="225" x="2112.04027055" y="10523.7536176"/>
        <node id="226" x="2341.68049085" y="10526.4448119"/>
        <node id="227" x="2667.69446806" y="10526.4866835"/>
        <node id="228" x="1899.40253038" y="11246.8994868"/>
        <node id="229" x="1741.35024614" y="11242.252509"/>
        <node id="230" x="1583.7917595" y="11250.0423733"/>
        <node id="231" x="1429.28264385" y="11252.2854523"/>
        <node id="232" x="1275.89699013" y="11247.9229687"/>
        <node id="233" x="416.887063705" y="11252.5356025"/>
        <node id="234" x="142.436481351" y="11251.6947373"/>
        <node id="235" x="-143.454340011" y="11249.3800083"/>
        <node id="236" x="-408.444090153" y="11249.0515415"/>
        <node id="237" x="-683.570778622" y="11833.5510786"/>
        <node id="238" x="-281.882461684" y="11824.3794873"/>
        <node id="239" x="-129.459757766" y="11825.9315771"/>
        <node id="240" x="140.579677045" y="11662.1423996"/>
        <node id="241" x="409.293674139" y="11664.6450111"/>
        <node id="242" x="419.185923961" y="11991.958856"/>
        <node id="243" x="140.90409918" y="11989.1384702"/>
        <node id="244" x="140.270696326" y="11826.5852602"/>
        <node id="245" x="-133.073261261" y="12000.5964128"/>
        <node id="246" x="1277.5089498" y="11824.8903242"/>
        <node id="247" x="1438.59002934" y="11823.8524826"/>
        <node id="248" x="1590.07034969" y="11827.294223"/>
        <node id="249" x="1747.44775797" y="11824.2202708"/>
        <node id="250" x="1892.38904593" y="11821.6594174"/>
        <node id="251" x="2118.09101887" y="11827.1277253"/>
        <node id="252" x="2346.24156026" y="11819.3690402"/>
        <node id="253" x="2834.73986667" y="11833.7176181"/>
        <node id="254" x="2345.7465325" y="12399.9935304"/>
        <node id="255" x="2116.1063122" y="12397.3023361"/>
        <node id="256" x="1904.35071418" y="12401.9088431"/>
        <node id="257" x="1748.15026557" y="12398.2799205"/>
        <node id="258" x="1589.93747866" y="12398.486889"/>
        <node id="259" x="1433.55595169" y="12399.5738786"/>
        <node id="260" x="1284.7834213" y="12400.1552113"/>
        <node id="261" x="1284.25685779" y="12312.6805464"/>
        <node id="262" x="416.386736083" y="12404.296169"/>
        <node id="263" x="136.071997308" y="12405.1736399"/>
        <node id="264" x="-129.773707158" y="12401.8401552"/>
        <node id="265" x="-273.879616485" y="12407.2679923"/>
        <node id="266" x="-643.922074845" y="12412.0407456"/>
        <node id="267" x="-682.050969163" y="13189.558635"/>
        <node id="268" x="-549.448360904" y="11841.8966136"/>
        <node id="269" x="-605.516449253" y="13130.0022769"/>
        <node id="270" x="-572.014850924" y="13228.3819295"/>
        <node id="271" x="-260.346231525" y="13126.2557212"/>
        <node id="272" x="-260.782627271" y="13215.4820025"/>
        <node id="273" x="-125.462674194" y="13217.262697"/>
        <node id="274" x="148.333607886" y="13210.5206665"/>
        <node id="275" x="418.537302816" y="13214.3491369"/>
        <node id="276" x="1285.1562211" y="13211.5118513"/>
        <node id="277" x="1288.00787054" y="13298.6173486"/>
        <node id="278" x="1436.68180985" y="13214.344865"/>
        <node id="279" x="1439.37297555" y="13297.1802881"/>
        <node id="280" x="1592.35142178" y="13206.6570869"/>
        <node id="281" x="1593.00966402" y="13297.7523771"/>
        <node id="282" x="1751.32139687" y="13210.1611751"/>
        <node id="283" x="1906.02804008" y="13208.7870237"/>
        <node id="284" x="2115.83713443" y="13212.1077255"/>
        <node id="285" x="2349.25923537" y="13206.8669369"/>
        <node id="286" x="2417.2134471" y="13208.3625706"/>
        <node id="287" x="2419.98278906" y="13297.196936"/>
        <node id="288" x="2351.65409318" y="13296.3824865"/>
        <node id="289" x="2118.60647639" y="13300.942091"/>
        <node id="290" x="2567.79498211" y="14018.2800437"/>
        <node id="291" x="2356.51675615" y="14018.3335274"/>
        <node id="292" x="2129.95058064" y="14018.4728073"/>
        <node id="293" x="1910.12098399" y="14016.3595883"/>
        <node id="294" x="1756.12214826" y="14020.6573132"/>
        <node id="295" x="1600.18506657" y="14019.7076308"/>
        <node id="296" x="1444.37143428" y="14021.867159"/>
        <node id="297" x="1288.61130447" y="14021.6483701"/>
        <node id="298" x="1287.95628976" y="14358.4972481"/>
        <node id="299" x="976.493654351" y="14352.5155527"/>
        <node id="300" x="703.298198464" y="14355.5327654"/>
        <node id="301" x="424.85590886" y="14339.3182848"/>
        <node id="302" x="146.656363177" y="14348.4550615"/>
        <node id="303" x="-121.168762278" y="14351.0031268"/>
        <node id="304" x="-390.574117651" y="14351.1617815"/>
        <node id="305" x="-402.581186035" y="15818.9788888"/>
        <node id="306" x="-109.332071653" y="15664.907997"/>
        <node id="307" x="295.385220377" y="15563.3733915"/>
        <node id="308" x="427.105894665" y="14833.8865069"/>
        <node id="309" x="708.523505492" y="14833.1084544"/>
        <node id="310" x="986.360894453" y="14833.4035019"/>
        <node id="311" x="1292.81535615" y="14830.4225206"/>
        <node id="312" x="1445.92118429" y="14831.0829346"/>
        <node id="313" x="1606.40144237" y="14831.4889056"/>
        <node id="314" x="1757.88176745" y="14832.6496409"/>
        <node id="315" x="1918.48137209" y="14830.2066023"/>
        <node id="316" x="2130.23285781" y="14824.2038855"/>
        <node id="317" x="2356.97186343" y="14827.9612992"/>
        <node id="318" x="2745.59441938" y="14826.9401858"/>
        <node id="319" x="2449.64864544" y="15562.8329409"/>
        <node id="320" x="2130.4329789" y="15558.6716678"/>
        <node id="321" x="1915.93666415" y="15561.771453"/>
        <node id="322" x="1760.48928669" y="15562.7383823"/>
        <node id="323" x="1617.6220641" y="15561.8774474"/>
        <node id="324" x="1452.62332707" y="15558.9874215"/>
        <node id="325" x="994.984810341" y="15572.375582"/>
        <node id="326" x="712.834713516" y="15564.1338066"/>
        <node id="327" x="437.569309288" y="15569.6880125"/>
        <node id="328" x="2126.45297455" y="15853.1413688"/>
        <node id="329" x="1890.72613626" y="15968.3776053"/>
        <node id="330" x="1576.30384815" y="16361.3391282"/>
        <node id="331" x="1456.24712825" y="16371.624424"/>
        <node id="332" x="1438.4525318" y="16609.4578227"/>
        <node id="333" x="1298.15369263" y="16366.7013778"/>
        <node id="334" x="1301.49059808" y="16616.2786406"/>
        <node id="335" x="988.489385659" y="16366.3970599"/>
        <node id="336" x="986.941727667" y="16532.5666823"/>
        <node id="337" x="712.17872888" y="16368.588735"/>
        <node id="338" x="436.913324653" y="16374.1429409"/>
        <node id="339" x="298.27242326" y="16365.5943562"/>
        <node id="340" x="1157.51523669" y="17170.4873275"/>
        <node id="341" x="995.216055565" y="17173.3899652"/>
        <node id="342" x="719.592644766" y="17171.5241642"/>
        <node id="343" x="445.504190745" y="17174.9375056"/>
        <node id="344" x="156.103094451" y="17179.1834042"/>
        <node id="345" x="-109.870181177" y="17175.9065093"/>
        <node id="346" x="-383.654102703" y="17175.432144"/>
        <node id="347" x="-113.897295187" y="16374.7062676"/>
        <node id="348" x="-386.998087765" y="16371.0592214"/>
        <node id="349" x="-624.757603486" y="16375.9430585"/>
        <node id="350" x="-532.982186149" y="17176.8485627"/>
        <node id="351" x="680.130372016" y="17975.6811153"/>
        <node id="352" x="447.774108775" y="17979.8604587"/>
        <node id="353" x="165.38531409" y="17979.5977078"/>
        <node id="354" x="50.87177839" y="17981.9055243"/>
        <node id="355" x="-105.937721011" y="17979.2089997"/>
        <node id="356" x="-381.199003476" y="17981.5974053"/>
        <node id="357" x="-714.110104802" y="18009.1910252"/>
    </nodes>
    <links capperiod="01:00:00">
        <link capacity="2558.76923077" freespeed="14" from="1" id="1" length="130.534518541" permlanes="2" to="2"/>
        <link capacity="2558.76923077" freespeed="14" from="1" id="2" length="430.215654737" permlanes="2" to="3"/>
        <link capacity="2558.76923077" freespeed="14" from="2" id="3" length="130.534518541" permlanes="2" to="1"/>
        <link capacity="2558.76923077" freespeed="14" from="2" id="4" length="386.142122176" permlanes="2" to="4"/>
        <link capacity="2558.76923077" freespeed="14" from="2" id="5" length="275.887378951" permlanes="2" to="7"/>
        <link capacity="2558.76923077" freespeed="14" from="3" id="6" length="430.215654737" permlanes="2" to="1"/>
        <link capacity="2558.76923077" freespeed="14" from="3" id="7" length="138.244540131" permlanes="2" to="4"/>
        <link capacity="2558.76923077" freespeed="14" from="3" id="8" length="865.93248671" permlanes="2" to="6"/>
        <link capacity="2558.76923077" freespeed="14" from="4" id="9" length="386.142122176" permlanes="2" to="2"/>
        <link capacity="2558.76923077" freespeed="14" from="4" id="10" length="138.244540131" permlanes="2" to="3"/>
        <link capacity="2558.76923077" freespeed="14" from="4" id="11" length="854.435411497" permlanes="2" to="5"/>
        <link capacity="2558.76923077" freespeed="14" from="5" id="12" length="227.67446436" permlanes="2" to="6"/>
        <link capacity="2558.76923077" freespeed="14" from="5" id="13" length="854.435411497" permlanes="2" to="4"/>
        <link capacity="2558.76923077" freespeed="14" from="5" id="14" length="433.260520337" permlanes="2" to="18"/>
        <link capacity="2558.76923077" freespeed="14" from="6" id="15" length="865.93248671" permlanes="2" to="3"/>
        <link capacity="2558.76923077" freespeed="14" from="6" id="16" length="712.829649621" permlanes="2" to="24"/>
        <link capacity="2558.76923077" freespeed="14" from="6" id="17" length="227.67446436" permlanes="2" to="5"/>
        <link capacity="2558.76923077" freespeed="14" from="7" id="18" length="275.887378951" permlanes="2" to="2"/>
        <link capacity="2558.76923077" freespeed="14" from="7" id="19" length="95.25330069" permlanes="2" to="10"/>
        <link capacity="2558.76923077" freespeed="14" from="8" id="20" length="141.033450984" permlanes="2" to="10"/>
        <link capacity="2558.76923077" freespeed="14" from="8" id="21" length="341.146303921" permlanes="2" to="9"/>
        <link capacity="2558.76923077" freespeed="14" from="9" id="22" length="341.146303921" permlanes="2" to="8"/>
        <link capacity="2558.76923077" freespeed="14" from="9" id="23" length="772.9813649" permlanes="2" to="17"/>
        <link capacity="2558.76923077" freespeed="14" from="10" id="24" length="141.033450984" permlanes="2" to="8"/>
        <link capacity="2558.76923077" freespeed="14" from="10" id="25" length="95.25330069" permlanes="2" to="7"/>
        <link capacity="2558.76923077" freespeed="14" from="10" id="26" length="281.021421038" permlanes="2" to="11"/>
        <link capacity="2558.76923077" freespeed="14" from="11" id="27" length="146.308274424" permlanes="2" to="12"/>
        <link capacity="2558.76923077" freespeed="14" from="11" id="28" length="192.736640576" permlanes="2" to="9"/>
        <link capacity="2558.76923077" freespeed="14" from="11" id="29" length="640.416096568" permlanes="2" to="13"/>
        <link capacity="2558.76923077" freespeed="14" from="12" id="30" length="372.439241924" permlanes="2" to="7"/>
        <link capacity="2558.76923077" freespeed="14" from="13" id="31" length="154.013639337" permlanes="2" to="14"/>
        <link capacity="2558.76923077" freespeed="14" from="13" id="32" length="85.9038902665" permlanes="2" to="15"/>
        <link capacity="2558.76923077" freespeed="14" from="14" id="33" length="528.785037119" permlanes="2" to="12"/>
        <link capacity="2558.76923077" freespeed="14" from="14" id="34" length="362.402220732" permlanes="2" to="18"/>
        <link capacity="2558.76923077" freespeed="14" from="15" id="35" length="371.489879412" permlanes="2" to="17"/>
        <link capacity="2558.76923077" freespeed="14" from="15" id="36" length="286.808403762" permlanes="2" to="21"/>
        <link capacity="2558.76923077" freespeed="14" from="16" id="37" length="86.027770178" permlanes="2" to="14"/>
        <link capacity="2558.76923077" freespeed="14" from="16" id="38" length="162.360396288" permlanes="2" to="15"/>
        <link capacity="2558.76923077" freespeed="14" from="17" id="39" length="772.9813649" permlanes="2" to="9"/>
        <link capacity="2558.76923077" freespeed="14" from="17" id="40" length="308.793003053" permlanes="2" to="23"/>
        <link capacity="2558.76923077" freespeed="14" from="18" id="41" length="299.716909052" permlanes="2" to="16"/>
        <link capacity="2558.76923077" freespeed="14" from="18" id="42" length="84.1097948358" permlanes="2" to="19"/>
        <link capacity="2558.76923077" freespeed="14" from="18" id="43" length="433.260520337" permlanes="2" to="5"/>
        <link capacity="2558.76923077" freespeed="14" from="19" id="44" length="84.1097948358" permlanes="2" to="18"/>
        <link capacity="2558.76923077" freespeed="14" from="19" id="45" length="224.837904669" permlanes="2" to="20"/>
        <link capacity="2558.76923077" freespeed="14" from="19" id="46" length="284.004963175" permlanes="2" to="28"/>
        <link capacity="2558.76923077" freespeed="14" from="20" id="47" length="224.837904669" permlanes="2" to="19"/>
        <link capacity="2558.76923077" freespeed="14" from="20" id="48" length="291.650372571" permlanes="2" to="16"/>
        <link capacity="2558.76923077" freespeed="14" from="20" id="49" length="175.824048644" permlanes="2" to="21"/>
        <link capacity="2558.76923077" freespeed="14" from="21" id="50" length="175.824048644" permlanes="2" to="20"/>
        <link capacity="2558.76923077" freespeed="14" from="21" id="51" length="119.869161118" permlanes="2" to="22"/>
        <link capacity="2558.76923077" freespeed="14" from="21" id="52" length="282.132771811" permlanes="2" to="31"/>
        <link capacity="2558.76923077" freespeed="14" from="22" id="53" length="357.939442525" permlanes="2" to="23"/>
        <link capacity="2558.76923077" freespeed="14" from="22" id="54" length="570.658664984" permlanes="2" to="37"/>
        <link capacity="2558.76923077" freespeed="14" from="22" id="55" length="119.869161118" permlanes="2" to="21"/>
        <link capacity="2558.76923077" freespeed="14" from="23" id="56" length="308.793003053" permlanes="2" to="17"/>
        <link capacity="2558.76923077" freespeed="14" from="23" id="57" length="589.55087981" permlanes="2" to="38"/>
        <link capacity="2558.76923077" freespeed="14" from="23" id="58" length="357.939442525" permlanes="2" to="22"/>
        <link capacity="2558.76923077" freespeed="14" from="24" id="59" length="712.829649621" permlanes="2" to="6"/>
        <link capacity="2558.76923077" freespeed="14" from="24" id="60" length="611.744908642" permlanes="2" to="59"/>
        <link capacity="2558.76923077" freespeed="14" from="24" id="61" length="469.730672595" permlanes="2" to="25"/>
        <link capacity="2558.76923077" freespeed="14" from="25" id="62" length="469.730672595" permlanes="2" to="24"/>
        <link capacity="2558.76923077" freespeed="14" from="25" id="63" length="139.922237569" permlanes="2" to="26"/>
        <link capacity="2558.76923077" freespeed="14" from="25" id="64" length="413.484492613" permlanes="2" to="56"/>
        <link capacity="2558.76923077" freespeed="14" from="25" id="65" length="208.223438847" permlanes="2" to="58"/>
        <link capacity="2558.76923077" freespeed="14" from="26" id="66" length="365.728523718" permlanes="2" to="27"/>
        <link capacity="2558.76923077" freespeed="14" from="26" id="67" length="139.922237569" permlanes="2" to="25"/>
        <link capacity="2558.76923077" freespeed="14" from="27" id="68" length="529.488352124" permlanes="2" to="5"/>
        <link capacity="2558.76923077" freespeed="14" from="27" id="69" length="368.793117042" permlanes="2" to="53"/>